[General]
network = TrafficShapingTopology
eventlog-recording-intervals = 0..20
sim-time-limit = 1min

record-eventlog = true

